<?xml version="1.0" encoding="UTF-8"?>

<!-- generated on 2023-04-16 19:56:20 by Eclipse SUMO netedit Version 1.13.0
<configuration xmlns:xsi="http://www.w3.org/2001/XMLSchema-instance" xsi:noNamespaceSchemaLocation="http://sumo.dlr.de/xsd/netconvertConfiguration.xsd">

    <input>
        <sumo-net-file value="D:\研究生\0.论文\cav采集数据换道\0.SUMO仿真（数据表）\搭建成果\map.net.xml"/>
    </input>

    <output>
        <output-file value="D:\研究生\0.论文\cav采集数据换道\0.SUMO仿真（数据表）\搭建成果\map.net.xml"/>
    </output>

    <processing>
        <geometry.min-radius.fix.railways value="false"/>
        <geometry.max-grade.fix value="false"/>
        <offset.disable-normalization value="true"/>
        <lefthand value="false"/>
    </processing>

    <junctions>
        <no-turnarounds value="true"/>
        <junctions.corner-detail value="5"/>
        <junctions.limit-turn-speed value="5.5"/>
        <rectangular-lane-cut value="false"/>
    </junctions>

    <pedestrian>
        <walkingareas value="false"/>
    </pedestrian>

    <report>
        <aggregate-warnings value="5"/>
    </report>

</configuration>
-->

<net version="1.9" junctionCornerDetail="5" limitTurnSpeed="5.50" xmlns:xsi="http://www.w3.org/2001/XMLSchema-instance" xsi:noNamespaceSchemaLocation="http://sumo.dlr.de/xsd/net_file.xsd">

    <location netOffset="0.00,0.00" convBoundary="-500.00,-500.00,500.00,500.00" origBoundary="-10000000000.00,-10000000000.00,10000000000.00,10000000000.00" projParameter="!"/>

    <edge id=":J0_0" function="internal">
        <lane id=":J0_0_0" index="0" speed="6.51" length="9.03" shape="-8.00,13.60 -8.35,11.15 -9.40,9.40 -11.15,8.35 -13.60,8.00"/>
    </edge>
    <edge id=":J0_1" function="internal">
        <lane id=":J0_1_0" index="0" speed="13.89" length="27.20" shape="-8.00,13.60 -8.00,-13.60"/>
        <lane id=":J0_1_1" index="1" speed="13.89" length="27.20" shape="-4.80,13.60 -4.80,-13.60"/>
        <lane id=":J0_1_2" index="2" speed="13.89" length="27.20" shape="-1.60,13.60 -1.60,-13.60"/>
    </edge>
    <edge id=":J0_4" function="internal">
        <lane id=":J0_4_0" index="0" speed="10.36" length="24.51" shape="-1.60,13.60 -0.65,6.95 2.20,2.20 6.95,-0.65 13.60,-1.60"/>
    </edge>
    <edge id=":J0_5" function="internal">
        <lane id=":J0_5_0" index="0" speed="6.51" length="9.03" shape="13.60,8.00 11.15,8.35 9.40,9.40 8.35,11.15 8.00,13.60"/>
    </edge>
    <edge id=":J0_6" function="internal">
        <lane id=":J0_6_0" index="0" speed="13.89" length="27.20" shape="13.60,8.00 -13.60,8.00"/>
        <lane id=":J0_6_1" index="1" speed="13.89" length="27.20" shape="13.60,4.80 -13.60,4.80"/>
        <lane id=":J0_6_2" index="2" speed="13.89" length="27.20" shape="13.60,1.60 -13.60,1.60"/>
    </edge>
    <edge id=":J0_9" function="internal">
        <lane id=":J0_9_0" index="0" speed="10.36" length="24.51" shape="13.60,1.60 6.95,0.65 2.20,-2.20 -0.65,-6.95 -1.60,-13.60"/>
    </edge>
    <edge id=":J0_10" function="internal">
        <lane id=":J0_10_0" index="0" speed="6.51" length="9.03" shape="8.00,-13.60 8.35,-11.15 9.40,-9.40 11.15,-8.35 13.60,-8.00"/>
    </edge>
    <edge id=":J0_11" function="internal">
        <lane id=":J0_11_0" index="0" speed="13.89" length="27.20" shape="8.00,-13.60 8.00,13.60"/>
        <lane id=":J0_11_1" index="1" speed="13.89" length="27.20" shape="4.80,-13.60 4.80,13.60"/>
        <lane id=":J0_11_2" index="2" speed="13.89" length="27.20" shape="1.60,-13.60 1.60,13.60"/>
    </edge>
    <edge id=":J0_14" function="internal">
        <lane id=":J0_14_0" index="0" speed="10.36" length="24.51" shape="1.60,-13.60 0.65,-6.95 -2.20,-2.20 -6.95,0.65 -13.60,1.60"/>
    </edge>
    <edge id=":J0_15" function="internal">
        <lane id=":J0_15_0" index="0" speed="6.51" length="9.03" shape="-13.60,-8.00 -11.15,-8.35 -9.40,-9.40 -8.35,-11.15 -8.00,-13.60"/>
    </edge>
    <edge id=":J0_16" function="internal">
        <lane id=":J0_16_0" index="0" speed="13.89" length="27.20" shape="-13.60,-8.00 13.60,-8.00"/>
        <lane id=":J0_16_1" index="1" speed="13.89" length="27.20" shape="-13.60,-4.80 13.60,-4.80"/>
        <lane id=":J0_16_2" index="2" speed="13.89" length="27.20" shape="-13.60,-1.60 13.60,-1.60"/>
    </edge>
    <edge id=":J0_19" function="internal">
        <lane id=":J0_19_0" index="0" speed="10.36" length="24.51" shape="-13.60,-1.60 -6.95,-0.65 -2.20,2.20 0.65,6.95 1.60,13.60"/>
    </edge>

    <edge id="-E0" from="J1" to="J0" priority="-1">
        <lane id="-E0_0" index="0" speed="13.89" length="486.40" shape="-500.00,-8.00 -13.60,-8.00"/>
        <lane id="-E0_1" index="1" speed="13.89" length="486.40" shape="-500.00,-4.80 -13.60,-4.80"/>
        <lane id="-E0_2" index="2" speed="13.89" length="486.40" shape="-500.00,-1.60 -13.60,-1.60"/>
    </edge>
    <edge id="-E1" from="J2" to="J0" priority="-1">
        <lane id="-E1_0" index="0" speed="13.89" length="486.40" shape="-8.00,500.00 -8.00,13.60"/>
        <lane id="-E1_1" index="1" speed="13.89" length="486.40" shape="-4.80,500.00 -4.80,13.60"/>
        <lane id="-E1_2" index="2" speed="13.89" length="486.40" shape="-1.60,500.00 -1.60,13.60"/>
    </edge>
    <edge id="-E2" from="J4" to="J0" priority="-1">
        <lane id="-E2_0" index="0" speed="13.89" length="486.40" shape="8.00,-500.00 8.00,-13.60"/>
        <lane id="-E2_1" index="1" speed="13.89" length="486.40" shape="4.80,-500.00 4.80,-13.60"/>
        <lane id="-E2_2" index="2" speed="13.89" length="486.40" shape="1.60,-500.00 1.60,-13.60"/>
    </edge>
    <edge id="-E3" from="J5" to="J0" priority="-1">
        <lane id="-E3_0" index="0" speed="13.89" length="486.40" shape="500.00,8.00 13.60,8.00"/>
        <lane id="-E3_1" index="1" speed="13.89" length="486.40" shape="500.00,4.80 13.60,4.80"/>
        <lane id="-E3_2" index="2" speed="13.89" length="486.40" shape="500.00,1.60 13.60,1.60"/>
    </edge>
    <edge id="E0" from="J0" to="J1" priority="-1">
        <lane id="E0_0" index="0" speed="13.89" length="486.40" shape="-13.60,8.00 -500.00,8.00"/>
        <lane id="E0_1" index="1" speed="13.89" length="486.40" shape="-13.60,4.80 -500.00,4.80"/>
        <lane id="E0_2" index="2" speed="13.89" length="486.40" shape="-13.60,1.60 -500.00,1.60"/>
    </edge>
    <edge id="E1" from="J0" to="J2" priority="-1">
        <lane id="E1_0" index="0" speed="13.89" length="486.40" shape="8.00,13.60 8.00,500.00"/>
        <lane id="E1_1" index="1" speed="13.89" length="486.40" shape="4.80,13.60 4.80,500.00"/>
        <lane id="E1_2" index="2" speed="13.89" length="486.40" shape="1.60,13.60 1.60,500.00"/>
    </edge>
    <edge id="E2" from="J0" to="J4" priority="-1">
        <lane id="E2_0" index="0" speed="13.89" length="486.40" shape="-8.00,-13.60 -8.00,-500.00"/>
        <lane id="E2_1" index="1" speed="13.89" length="486.40" shape="-4.80,-13.60 -4.80,-500.00"/>
        <lane id="E2_2" index="2" speed="13.89" length="486.40" shape="-1.60,-13.60 -1.60,-500.00"/>
    </edge>
    <edge id="E3" from="J0" to="J5" priority="-1">
        <lane id="E3_0" index="0" speed="13.89" length="486.40" shape="13.60,-8.00 500.00,-8.00"/>
        <lane id="E3_1" index="1" speed="13.89" length="486.40" shape="13.60,-4.80 500.00,-4.80"/>
        <lane id="E3_2" index="2" speed="13.89" length="486.40" shape="13.60,-1.60 500.00,-1.60"/>
    </edge>

    <tlLogic id="J0" type="static" programID="0" offset="0">
        <phase duration="27" state="GGGGrrrrrrGGGGrrrrrr"/>
        <phase duration="3"  state="yyyyrrrrrryyyyrrrrrr"/>
        <phase duration="27" state="rrrrGrrrrrrrrrGrrrrr"/>
        <phase duration="3"  state="rrrryrrrrrrrrryrrrrr"/>
        <phase duration="27" state="rrrrrGGGGrrrrrrGGGGr"/>
        <phase duration="3"  state="rrrrryyyyrrrrrryyyyr"/>
        <phase duration="27" state="rrrrrrrrrGrrrrrrrrrG"/>
        <phase duration="3"  state="rrrrrrrrryrrrrrrrrry"/>
    </tlLogic>

    <junction id="J0" type="traffic_light" x="0.00" y="0.00" incLanes="-E1_0 -E1_1 -E1_2 -E3_0 -E3_1 -E3_2 -E2_0 -E2_1 -E2_2 -E0_0 -E0_1 -E0_2" intLanes=":J0_0_0 :J0_1_0 :J0_1_1 :J0_1_2 :J0_4_0 :J0_5_0 :J0_6_0 :J0_6_1 :J0_6_2 :J0_9_0 :J0_10_0 :J0_11_0 :J0_11_1 :J0_11_2 :J0_14_0 :J0_15_0 :J0_16_0 :J0_16_1 :J0_16_2 :J0_19_0" shape="-9.60,13.60 9.60,13.60 10.04,11.38 10.60,10.60 11.38,10.04 12.38,9.71 13.60,9.60 13.60,-9.60 11.38,-10.04 10.60,-10.60 10.04,-11.38 9.71,-12.38 9.60,-13.60 -9.60,-13.60 -10.04,-11.38 -10.60,-10.60 -11.38,-10.04 -12.38,-9.71 -13.60,-9.60 -13.60,9.60 -11.38,10.04 -10.60,10.60 -10.04,11.38 -9.71,12.38">
        <request index="0"  response="00000000000000000000" foes="00000000000111000000" cont="0"/>
        <request index="1"  response="00000000000000000000" foes="11111100001111000000" cont="0"/>
        <request index="2"  response="00000000000000000000" foes="11111100001111000000" cont="0"/>
        <request index="3"  response="00000000000000000000" foes="11111100001111000000" cont="0"/>
        <request index="4"  response="00000011100000000000" foes="11110011101111000000" cont="0"/>
        <request index="5"  response="00000011100000000000" foes="00000011100000000000" cont="0"/>
        <request index="6"  response="00000111100000011111" foes="10000111100000011111" cont="0"/>
        <request index="7"  response="00000111100000011111" foes="10000111100000011111" cont="0"/>
        <request index="8"  response="00000111100000011111" foes="10000111100000011111" cont="0"/>
        <request index="9"  response="01110111100000011110" foes="01110111100000011110" cont="0"/>
        <request index="10" response="00000000000000000000" foes="01110000000000000000" cont="0"/>
        <request index="11" response="00000000000000000000" foes="11110000001111110000" cont="0"/>
        <request index="12" response="00000000000000000000" foes="11110000001111110000" cont="0"/>
        <request index="13" response="00000000000000000000" foes="11110000001111110000" cont="0"/>
        <request index="14" response="00000000000000001110" foes="11110000001111001110" cont="0"/>
        <request index="15" response="00000000000000001110" foes="00000000000000001110" cont="0"/>
        <request index="16" response="00000111110000011110" foes="00000111111000011110" cont="0"/>
        <request index="17" response="00000111110000011110" foes="00000111111000011110" cont="0"/>
        <request index="18" response="00000111110000011110" foes="00000111111000011110" cont="0"/>
        <request index="19" response="00000111100111011110" foes="00000111100111011110" cont="0"/>
    </junction>
    <junction id="J1" type="dead_end" x="-500.00" y="0.00" incLanes="E0_0 E0_1 E0_2" intLanes="" shape="-500.00,0.00 -500.00,9.60 -500.00,0.00"/>
    <junction id="J2" type="dead_end" x="0.00" y="500.00" incLanes="E1_0 E1_1 E1_2" intLanes="" shape="0.00,500.00 9.60,500.00 0.00,500.00"/>
    <junction id="J4" type="dead_end" x="0.00" y="-500.00" incLanes="E2_0 E2_1 E2_2" intLanes="" shape="0.00,-500.00 -9.60,-500.00 0.00,-500.00"/>
    <junction id="J5" type="dead_end" x="500.00" y="0.00" incLanes="E3_0 E3_1 E3_2" intLanes="" shape="500.00,0.00 500.00,-9.60 500.00,0.00"/>

    <connection from="-E0" to="E2" fromLane="0" toLane="0" via=":J0_15_0" tl="J0" linkIndex="15" dir="r" state="o"/>
    <connection from="-E0" to="E3" fromLane="0" toLane="0" via=":J0_16_0" tl="J0" linkIndex="16" dir="s" state="o"/>
    <connection from="-E0" to="E3" fromLane="1" toLane="1" via=":J0_16_1" tl="J0" linkIndex="17" dir="s" state="o"/>
    <connection from="-E0" to="E3" fromLane="2" toLane="2" via=":J0_16_2" tl="J0" linkIndex="18" dir="s" state="o"/>
    <connection from="-E0" to="E1" fromLane="2" toLane="2" via=":J0_19_0" tl="J0" linkIndex="19" dir="l" state="o"/>
    <connection from="-E1" to="E0" fromLane="0" toLane="0" via=":J0_0_0" tl="J0" linkIndex="0" dir="r" state="O"/>
    <connection from="-E1" to="E2" fromLane="0" toLane="0" via=":J0_1_0" tl="J0" linkIndex="1" dir="s" state="O"/>
    <connection from="-E1" to="E2" fromLane="1" toLane="1" via=":J0_1_1" tl="J0" linkIndex="2" dir="s" state="O"/>
    <connection from="-E1" to="E2" fromLane="2" toLane="2" via=":J0_1_2" tl="J0" linkIndex="3" dir="s" state="O"/>
    <connection from="-E1" to="E3" fromLane="2" toLane="2" via=":J0_4_0" tl="J0" linkIndex="4" dir="l" state="o"/>
    <connection from="-E2" to="E3" fromLane="0" toLane="0" via=":J0_10_0" tl="J0" linkIndex="10" dir="r" state="O"/>
    <connection from="-E2" to="E1" fromLane="0" toLane="0" via=":J0_11_0" tl="J0" linkIndex="11" dir="s" state="O"/>
    <connection from="-E2" to="E1" fromLane="1" toLane="1" via=":J0_11_1" tl="J0" linkIndex="12" dir="s" state="O"/>
    <connection from="-E2" to="E1" fromLane="2" toLane="2" via=":J0_11_2" tl="J0" linkIndex="13" dir="s" state="O"/>
    <connection from="-E2" to="E0" fromLane="2" toLane="2" via=":J0_14_0" tl="J0" linkIndex="14" dir="l" state="o"/>
    <connection from="-E3" to="E1" fromLane="0" toLane="0" via=":J0_5_0" tl="J0" linkIndex="5" dir="r" state="o"/>
    <connection from="-E3" to="E0" fromLane="0" toLane="0" via=":J0_6_0" tl="J0" linkIndex="6" dir="s" state="o"/>
    <connection from="-E3" to="E0" fromLane="1" toLane="1" via=":J0_6_1" tl="J0" linkIndex="7" dir="s" state="o"/>
    <connection from="-E3" to="E0" fromLane="2" toLane="2" via=":J0_6_2" tl="J0" linkIndex="8" dir="s" state="o"/>
    <connection from="-E3" to="E2" fromLane="2" toLane="2" via=":J0_9_0" tl="J0" linkIndex="9" dir="l" state="o"/>

    <connection from=":J0_0" to="E0" fromLane="0" toLane="0" dir="r" state="M"/>
    <connection from=":J0_1" to="E2" fromLane="0" toLane="0" dir="s" state="M"/>
    <connection from=":J0_1" to="E2" fromLane="1" toLane="1" dir="s" state="M"/>
    <connection from=":J0_1" to="E2" fromLane="2" toLane="2" dir="s" state="M"/>
    <connection from=":J0_4" to="E3" fromLane="0" toLane="2" dir="l" state="M"/>
    <connection from=":J0_5" to="E1" fromLane="0" toLane="0" dir="r" state="M"/>
    <connection from=":J0_6" to="E0" fromLane="0" toLane="0" dir="s" state="M"/>
    <connection from=":J0_6" to="E0" fromLane="1" toLane="1" dir="s" state="M"/>
    <connection from=":J0_6" to="E0" fromLane="2" toLane="2" dir="s" state="M"/>
    <connection from=":J0_9" to="E2" fromLane="0" toLane="2" dir="l" state="M"/>
    <connection from=":J0_10" to="E3" fromLane="0" toLane="0" dir="r" state="M"/>
    <connection from=":J0_11" to="E1" fromLane="0" toLane="0" dir="s" state="M"/>
    <connection from=":J0_11" to="E1" fromLane="1" toLane="1" dir="s" state="M"/>
    <connection from=":J0_11" to="E1" fromLane="2" toLane="2" dir="s" state="M"/>
    <connection from=":J0_14" to="E0" fromLane="0" toLane="2" dir="l" state="M"/>
    <connection from=":J0_15" to="E2" fromLane="0" toLane="0" dir="r" state="M"/>
    <connection from=":J0_16" to="E3" fromLane="0" toLane="0" dir="s" state="M"/>
    <connection from=":J0_16" to="E3" fromLane="1" toLane="1" dir="s" state="M"/>
    <connection from=":J0_16" to="E3" fromLane="2" toLane="2" dir="s" state="M"/>
    <connection from=":J0_19" to="E1" fromLane="0" toLane="2" dir="l" state="M"/>

</net>
